LAMMPS (9 Oct 2012)
# 3d protein simulation

units real

timestep 5

dimension	3

boundary s s s
#boundary p p p

neighbor	5 bin
neigh_modify	delay 5

atom_modify sort 0 0.0

special_bonds fene

atom_style	peptide

bond_style harmonic

pair_style vexcluded 2 3.5 3.5

read_data data.1r69
  orthogonal box = (-1000 -1000 -1000) to (1000 1000 1000)
  189 atoms
  250 bonds

pair_coeff * * 0.0
pair_coeff 1 1 20.0 3.5 4.5
pair_coeff 1 4 20.0 3.5 4.5
pair_coeff 4 4 20.0 3.5 4.5
pair_coeff 3 3 20.0 3.5 3.5

velocity	all create 300.0 2349852

group		alpha_carbons id 1 4 7 10 13 16 19 22 25 28 31 34 37 40 43 46 49 52 55 58 61 64 67 70 73 76 79 82 85 88 91 94 97 100 103 106 109 112 115 118 121 124 127 130 133 136 139 142 145 148 151 154 157 160 163 166 169 172 175 178 181 184 187
63 atoms in group alpha_carbons

group		beta_atoms id 3 6 9 12 15 18 21 24 27 30 33 36 39 42 45 48 51 54 57 60 63 66 69 72 75 78 81 84 87 90 93 96 99 102 105 108 111 114 117 120 123 126 129 132 135 138 141 144 147 150 153 156 159 162 165 168 171 174 177 180 183 186 189
63 atoms in group beta_atoms

group		oxygens id 2 5 8 11 14 17 20 23 26 29 32 35 38 41 44 47 50 53 56 59 62 65 68 71 74 77 80 83 86 89 92 95 98 101 104 107 110 113 116 119 122 125 128 131 134 137 140 143 146 149 152 155 158 161 164 167 170 173 176 179 182 185 188
63 atoms in group oxygens

#Nose-Hoover thermostat
#fix		  1 all nvt temp 300.0 300.0 100.0

#langevin thermostat
fix 1  all nve
fix 11 all langevin 350.0 550.0 1000 3456  #change 3456 to other RANDOM numbers to initiate a different simulation

fix		  2 alpha_carbons backbone beta_atoms oxygens fix_backbone_coeff.data extended.seq
Chain flag on
Chi flag on
Rama flag on
Rama_P flag on
SSWeight flag on
ABC flag on
Dssp_Hdrgn flag on
P_AP flag on
Water flag on
Burial flag on
Helix flag on
Fragment_Memory_Table flag on

Reading fragments...
Computing FM table...

thermo		2000
dump		1 all atom 2000 1_dump

dump_modify	1 sort id

variable E_bond  equal emol
variable E_chain equal f_2[1]
variable E_excl  equal epair
variable E_chi   equal f_2[3]
variable E_rama  equal f_2[4]
variable E_dssp  equal f_2[6]
variable E_pap   equal f_2[7]
variable E_water equal f_2[8]
variable E_burial equal f_2[9]
variable E_helix equal f_2[10]
variable E_fmem  equal f_2[12]
variable E_P     equal v_E_chain+v_E_chi+v_E_rama+v_E_water+v_E_helix+v_E_fmem+v_E_excl+v_E_dssp+v_E_pap+v_E_bond
variable E_K     equal ke
variable E_total equal v_E_P+v_E_K
variable Step equal step

reset_timestep	0
restart 2000000 unfold
run		2000000
Step Temp E_pair E_mol TotEng Press Volume
0          300    59.531988    121.46429   -299.06819   -392.02962    15563.797
Averages over the last 501 of 1001 rows, steps 1000000 to 2000000:
Temp E_pair E_mol TotEng Press Volume
501.871 5.45514 114.024 110.789 66.6766 29596.2
Loop time of 3824.48 on 1 procs for 2000000 steps with 189 atoms

Pair  time (%) = 90.3808 (2.36322)
Bond  time (%) = 13.8095 (0.361081)
Neigh time (%) = 21.7554 (0.568845)
Comm  time (%) = 0.623685 (0.0163077)
Outpt time (%) = 0.245989 (0.00643195)
Other time (%) = 3697.67 (96.6841)

[Chain]

[Chi]
60.0 -0.71

[Epsilon]
1.0

[Rama]
2.0
5

[Rama_P]
3

[SSWeight]

[ABC]

[Dssp_Hdrgn]
0.5
0.0  0.0
0.76   0.68
2.06   2.98
7.0
1.0    0.5
12.0

[P_AP]
0.5
1.5
8.0
7.0
5 8
4

[Water]
0.75
5.0 7.0
2.6
10
2

[Burial]
1.0
4.0
0.0 3.0
3.0 6.0
6.0 9.0

[Helix]
0.5
2.0 -1.0
7.0 7.0
3.0
4
15.0
4.5 6.5
0 -3.0
0.76 0.68
2.1558 2.9862

[Fragment_Memory_Table]
0.2
fragsLAMW.mem.single
seq.gamma
0.1
0
0.15
